Circuit: * C:\Users\Usuario\Desktop\UTN\TC2_2022\Trabajos_Practicos\TPs_TC2_2022\TS\TS2\TS2_normalizado.asc

Ignoring empty pin current: Ix(u1:1)
Ignoring empty pin current: Ix(u1:2)
Ignoring empty pin current: Ix(u2:1)
Ignoring empty pin current: Ix(u2:2)
Ignoring empty pin current: Ix(u3:1)
Ignoring empty pin current: Ix(u3:2)
.step r2=0.5
.step r2=0.707
.step r2=0.914
.step r2=1.121
.step r2=1.328

Date: Thu Apr 28 23:51:32 2022
Total elapsed time: 0.064 seconds.

tnom = 27
temp = 27
method = trap
totiter = 0
traniter = 0
tranpoints = 0
accept = 0
rejected = 0
matrix size = 8
fillins = 6
solver = Normal

